Version 4
SHEET 1 2876 680
WIRE 1680 -768 1536 -768
WIRE 1536 -720 1536 -768
WIRE 1680 -720 1680 -768
WIRE 1536 -624 1536 -640
WIRE 1680 -608 1680 -640
WIRE 1824 -608 1680 -608
WIRE 1680 -576 1680 -608
WIRE 1680 -480 1680 -512
FLAG 1680 -480 0
FLAG 1824 -608 Vref
FLAG 1536 -624 0
FLAG 1920 -528 0
FLAG 1920 -608 0
SYMBOL diode 1664 -576 R0
WINDOW 0 55 20 Left 2
WINDOW 3 54 49 Left 2
SYMATTR InstName D1
SYMATTR Value PNPDIODE
SYMBOL current 1680 -720 R0
WINDOW 0 39 19 Left 2
WINDOW 3 36 59 Left 2
SYMATTR InstName Iconst
SYMATTR Value 1µ
SYMBOL voltage 1536 -736 R0
WINDOW 123 24 44 Left 2
WINDOW 39 0 0 Left 2
SYMATTR Value2 AC 1
SYMATTR InstName V1
SYMATTR Value 1.8
SYMBOL voltage 1920 -624 R0
WINDOW 123 0 0 Left 2
WINDOW 39 0 0 Left 2
SYMATTR InstName V2
SYMATTR Value .72567
TEXT 1544 -440 Left 2 !.model PNPDIODE D is=1e-18 n=1
TEXT 1544 -408 Left 2 !.ac oct 10000 1 10meg
TEXT 1664 -408 Left 2 !.step temp -50 100
